*SPEF "ieee 1481-1999"
*DESIGN "tt_um_tomkeddie_a"
*DATE "18:10:55 Wednesday October 30, 2024"
*VENDOR "The OpenROAD Project"
*PROGRAM "OpenROAD"
*VERSION "v2.0-16649-g40811f37f"
*DESIGN_FLOW "NAME_SCOPE LOCAL" "PIN_CAP NONE"
*DIVIDER /
*DELIMITER :
*BUS_DELIMITER []
*T_UNIT 1 NS
*C_UNIT 1 PF
*R_UNIT 1 OHM
*L_UNIT 1 HENRY

*NAME_MAP
*1 _0000_
*2 _0001_
*3 _0002_
*4 _0003_
*5 _0004_
*6 _0005_
*7 _0006_
*8 _0007_
*9 _0008_
*10 _0009_
*11 _0010_
*12 _0011_
*13 _0012_
*14 _0013_
*15 _0014_
*16 _0015_
*17 _0016_
*18 _0017_
*19 _0018_
*20 _0019_
*21 _0020_
*22 _0021_
*23 _0022_
*24 _0023_
*25 _0024_
*26 _0025_
*27 _0026_
*28 _0027_
*29 _0028_
*30 _0029_
*31 _0030_
*32 _0031_
*33 _0032_
*34 _0033_
*35 _0034_
*36 _0035_
*37 _0036_
*38 _0037_
*39 _0038_
*40 _0039_
*41 _0040_
*42 _0041_
*43 _0042_
*44 _0043_
*45 _0044_
*46 _0045_
*47 _0046_
*48 _0047_
*49 _0048_
*50 _0049_
*51 _0050_
*52 _0051_
*53 _0052_
*54 _0053_
*55 _0054_
*56 _0055_
*57 _0056_
*58 _0057_
*59 _0058_
*60 _0059_
*61 _0060_
*62 _0061_
*63 _0062_
*64 _0063_
*65 _0064_
*66 _0065_
*67 _0066_
*68 _0067_
*69 _0068_
*70 _0069_
*71 _0070_
*72 _0071_
*73 _0072_
*74 _0073_
*75 _0074_
*76 _0075_
*77 _0076_
*78 _0077_
*79 _0078_
*80 _0079_
*81 _0080_
*82 _0081_
*83 _0082_
*84 _0083_
*85 _0084_
*86 _0085_
*87 _0086_
*88 _0087_
*89 _0088_
*90 _0089_
*91 _0090_
*92 _0091_
*93 _0092_
*94 _0093_
*95 _0094_
*96 _0095_
*97 _0096_
*98 _0097_
*99 _0098_
*100 _0099_
*101 _0100_
*102 _0101_
*103 _0102_
*104 _0103_
*105 _0104_
*106 _0105_
*107 _0106_
*108 _0107_
*109 _0108_
*110 _0109_
*111 _0110_
*112 _0111_
*113 _0112_
*114 _0113_
*115 _0114_
*116 _0115_
*117 _0116_
*118 _0117_
*119 _0118_
*120 _0119_
*121 _0120_
*122 _0121_
*123 _0122_
*124 _0123_
*125 _0124_
*126 _0125_
*127 _0126_
*128 _0127_
*129 _0128_
*130 _0129_
*131 _0130_
*132 _0131_
*133 _0132_
*134 _0133_
*135 _0134_
*136 _0135_
*137 _0136_
*138 _0137_
*139 _0138_
*140 _0139_
*141 _0140_
*142 _0141_
*143 _0142_
*144 _0143_
*145 _0144_
*146 _0145_
*147 _0146_
*148 _0147_
*149 _0148_
*150 _0149_
*151 _0150_
*152 _0151_
*153 _0152_
*154 _0153_
*155 _0154_
*156 _0155_
*157 _0156_
*158 _0157_
*159 _0158_
*160 _0159_
*161 _0160_
*162 _0161_
*163 _0162_
*164 _0163_
*165 _0164_
*166 _0165_
*167 _0166_
*168 _0167_
*169 _0168_
*170 _0169_
*171 _0170_
*172 _0171_
*173 _0172_
*174 _0173_
*175 _0174_
*176 _0175_
*177 _0176_
*178 _0177_
*179 _0178_
*180 _0179_
*181 _0180_
*182 _0181_
*183 _0182_
*184 _0183_
*185 _0184_
*186 _0185_
*187 _0186_
*188 _0187_
*189 _0188_
*190 _0189_
*191 _0190_
*192 _0191_
*193 _0192_
*194 _0193_
*195 _0194_
*196 _0195_
*197 _0196_
*198 _0197_
*199 _0198_
*200 _0199_
*201 _0200_
*202 _0201_
*203 _0202_
*204 _0203_
*205 _0204_
*206 _0205_
*207 _0206_
*208 _0207_
*209 _0208_
*210 _0209_
*211 _0210_
*212 _0211_
*213 _0212_
*214 _0213_
*215 _0214_
*216 _0215_
*217 _0216_
*218 _0217_
*219 _0218_
*220 _0219_
*221 _0220_
*222 _0221_
*223 _0222_
*224 _0223_
*225 _0224_
*226 _0225_
*227 _0226_
*228 _0227_
*229 _0228_
*230 _0229_
*231 _0230_
*232 _0231_
*233 _0232_
*234 _0233_
*235 _0234_
*236 _0235_
*237 _0236_
*238 _0237_
*239 _0238_
*240 _0239_
*241 _0240_
*242 _0241_
*243 _0242_
*244 _0243_
*245 _0244_
*246 _0245_
*247 _0246_
*248 _0247_
*249 _0248_
*250 _0249_
*251 _0250_
*252 _0251_
*253 _0252_
*254 _0253_
*255 _0254_
*256 _0255_
*257 _0256_
*258 _0257_
*259 _0258_
*260 _0259_
*261 _0260_
*262 _0261_
*263 _0262_
*264 _0263_
*265 _0264_
*266 _0265_
*267 _0266_
*268 _0267_
*269 _0268_
*270 _0269_
*271 _0270_
*272 _0271_
*273 _0272_
*274 _0273_
*275 _0274_
*276 _0275_
*277 _0276_
*278 _0277_
*279 _0278_
*280 _0279_
*281 _0280_
*282 _0281_
*283 _0282_
*284 _0283_
*285 _0284_
*286 _0285_
*287 _0286_
*288 _0287_
*289 _0288_
*290 _0289_
*291 _0290_
*292 _0291_
*293 _0292_
*294 _0293_
*295 _0294_
*296 _0295_
*297 _0296_
*298 _0297_
*299 _0298_
*300 _0299_
*301 _0300_
*302 _0301_
*303 _0302_
*304 _0303_
*305 _0304_
*306 _0305_
*307 _0306_
*308 _0307_
*309 _0308_
*310 _0309_
*311 _0310_
*312 _0311_
*313 _0312_
*314 _0313_
*315 _0314_
*316 _0315_
*317 _0316_
*318 _0317_
*319 _0318_
*320 _0319_
*321 _0320_
*322 _0321_
*323 _0322_
*324 _0323_
*325 _0324_
*326 _0325_
*327 _0326_
*328 _0327_
*329 _0328_
*330 _0329_
*331 _0330_
*332 _0331_
*333 _0332_
*334 _0333_
*335 _0334_
*336 _0335_
*337 _0336_
*338 _0337_
*339 _0338_
*340 _0339_
*341 _0340_
*342 _0341_
*343 _0342_
*344 _0343_
*345 _0344_
*346 _0345_
*347 _0346_
*348 _0347_
*349 _0348_
*350 _0349_
*351 _0350_
*352 _0351_
*353 _0352_
*354 _0353_
*355 _0354_
*356 _0355_
*357 _0356_
*358 _0357_
*359 _0358_
*360 _0359_
*361 _0360_
*362 _0361_
*363 _0362_
*364 _0363_
*365 _0364_
*366 _0365_
*367 _0366_
*368 _0367_
*369 _0368_
*370 _0369_
*371 _0370_
*372 _0371_
*373 _0372_
*374 _0373_
*375 _0374_
*376 _0375_
*377 _0376_
*378 _0377_
*379 _0378_
*380 _0379_
*381 _0380_
*382 _0381_
*383 _0382_
*384 _0383_
*385 _0384_
*386 _0385_
*387 _0386_
*388 _0387_
*389 _0388_
*390 _0389_
*391 _0390_
*392 _0391_
*393 _0392_
*394 _0393_
*395 _0394_
*396 _0395_
*397 _0396_
*398 _0397_
*399 _0398_
*400 _0399_
*401 _0400_
*402 _0401_
*403 _0402_
*404 _0403_
*405 _0404_
*406 _0405_
*407 _0406_
*408 _0407_
*409 _0408_
*410 _0409_
*411 _0410_
*412 _0411_
*413 _0412_
*414 _0413_
*415 _0414_
*416 _0415_
*417 _0416_
*418 _0417_
*419 _0418_
*420 _0419_
*421 _0420_
*422 _0421_
*423 _0422_
*424 _0423_
*425 _0424_
*426 _0425_
*427 _0426_
*428 _0427_
*429 _0428_
*430 _0429_
*431 _0430_
*432 _0431_
*433 _0432_
*434 _0433_
*435 _0434_
*436 _0435_
*437 _0436_
*438 _0437_
*439 _0438_
*440 _0439_
*441 _0440_
*442 _0441_
*443 _0442_
*444 _0443_
*445 _0444_
*446 _0445_
*447 _0446_
*448 _0447_
*449 _0448_
*450 _0449_
*451 _0450_
*452 _0451_
*453 _0452_
*454 _0453_
*455 _0454_
*456 _0455_
*457 _0456_
*458 _0457_
*459 _0458_
*460 _0459_
*461 _0460_
*462 _0461_
*463 _0462_
*464 _0463_
*465 _0464_
*466 _0465_
*467 _0466_
*468 _0467_
*469 _0468_
*470 _0469_
*471 _0470_
*472 _0471_
*473 _0472_
*474 _0473_
*475 _0474_
*476 _0475_
*477 _0476_
*478 _0477_
*479 _0478_
*480 _0479_
*481 _0480_
*482 _0481_
*483 _0482_
*484 _0483_
*485 _0484_
*486 _0485_
*487 _0486_
*488 _0487_
*489 _0488_
*490 _0489_
*491 _0490_
*492 _0491_
*493 _0492_
*494 _0493_
*495 _0494_
*496 _0495_
*497 _0496_
*498 _0497_
*499 _0498_
*500 _0499_
*501 _0500_
*502 _0501_
*503 _0502_
*504 _0503_
*505 _0504_
*506 _0505_
*507 _0506_
*508 _0507_
*509 _0508_
*510 _0509_
*511 _0510_
*512 _0511_
*513 _0512_
*514 _0513_
*515 _0514_
*516 _0515_
*517 _0516_
*518 _0517_
*519 _0518_
*520 _0519_
*521 _0520_
*522 _0521_
*523 _0522_
*524 _0523_
*525 _0524_
*526 _0525_
*527 _0526_
*528 _0527_
*529 _0528_
*530 _0529_
*531 _0530_
*532 _0531_
*533 _0532_
*534 _0533_
*535 _0534_
*536 _0535_
*537 _0536_
*538 _0537_
*539 _0538_
*540 _0539_
*541 _0540_
*542 _0541_
*543 _0542_
*544 _0543_
*545 _0544_
*546 _0545_
*547 _0546_
*548 _0547_
*549 _0548_
*550 _0549_
*551 _0550_
*552 _0551_
*553 _0552_
*554 _0553_
*555 _0554_
*556 _0555_
*557 _0556_
*558 _0557_
*559 _0558_
*560 _0559_
*561 _0560_
*562 _0561_
*563 _0562_
*564 _0563_
*565 _0564_
*566 _0565_
*567 _0566_
*568 _0567_
*569 _0568_
*570 _0569_
*571 _0570_
*572 _0571_
*573 _0572_
*574 _0573_
*575 _0574_
*576 _0575_
*577 _0576_
*578 _0577_
*579 _0578_
*580 _0579_
*581 _0580_
*582 _0581_
*583 _0582_
*584 _0583_
*585 _0584_
*586 _0585_
*587 _0586_
*588 _0587_
*589 _0588_
*590 _0589_
*591 _0590_
*592 _0591_
*593 _0592_
*594 _0593_
*595 _0594_
*596 _0595_
*597 _0596_
*598 _0597_
*599 _0598_
*600 _0599_
*601 _0600_
*602 _0601_
*603 _0602_
*604 _0603_
*605 _0604_
*606 _0605_
*607 _0606_
*608 _0607_
*609 _0608_
*610 _0609_
*611 _0610_
*612 _0611_
*613 _0612_
*614 _0613_
*615 _0614_
*616 _0615_
*617 _0616_
*618 _0617_
*619 _0618_
*620 _0619_
*621 _0620_
*622 _0621_
*623 clknet_0_clk
*624 net58
*625 b0
*626 clk
*627 ena
*628 g0
*629 hs
*630 rst_n
*631 ui_in[0]
*632 ui_in[1]
*633 ui_in[2]
*634 ui_in[3]
*635 ui_in[4]
*636 ui_in[5]
*637 ui_in[6]
*638 ui_in[7]
*639 uio_in[0]
*640 uio_in[1]
*641 uio_in[2]
*642 uio_in[3]
*643 uio_in[4]
*644 uio_in[5]
*645 uio_in[6]
*646 uio_in[7]
*647 uio_oe[0]
*648 uio_oe[1]
*649 uio_oe[2]
*650 uio_oe[3]
*651 uio_oe[4]
*652 uio_oe[5]
*653 uio_oe[6]
*654 uio_oe[7]
*655 uio_out[0]
*656 uio_out[1]
*657 uio_out[2]
*658 uio_out[3]
*659 uio_out[4]
*660 uio_out[5]
*661 uio_out[6]
*662 uio_out[7]
*663 uo_out[0]
*664 uo_out[1]
*665 uo_out[2]
*666 uo_out[3]
*667 uo_out[4]
*668 uo_out[5]
*669 uo_out[6]
*670 uo_out[7]
*671 vga\.blank_h
*672 vga\.blank_v
*673 vga\.car_pos_h\[0\]
*674 vga\.car_pos_h\[1\]
*675 vga\.car_pos_h\[2\]
*676 vga\.car_pos_h\[3\]
*677 vga\.car_pos_h\[4\]
*678 vga\.car_pos_h\[5\]
*679 vga\.car_pos_h\[6\]
*680 vga\.car_pos_h\[7\]
*681 vga\.car_pos_h\[8\]
*682 vga\.car_pos_h\[9\]
*683 vga\.count_h\[0\]
*684 vga\.count_h\[1\]
*685 vga\.count_h\[2\]
*686 vga\.count_h\[3\]
*687 vga\.count_h\[4\]
*688 vga\.count_h\[5\]
*689 vga\.count_h\[6\]
*690 vga\.count_h\[7\]
*691 vga\.count_h\[8\]
*692 vga\.count_h\[9\]
*693 vga\.count_v\[0\]
*694 vga\.count_v\[1\]
*695 vga\.count_v\[2\]
*696 vga\.count_v\[3\]
*697 vga\.count_v\[4\]
*698 vga\.count_v\[5\]
*699 vga\.count_v\[6\]
*700 vga\.count_v\[7\]
*701 vga\.count_v\[8\]
*702 vga\.count_v\[9\]
*703 vga\.hs_out
*704 vga\.interval_counter\[0\]
*705 vga\.interval_counter\[10\]
*706 vga\.interval_counter\[11\]
*707 vga\.interval_counter\[12\]
*708 vga\.interval_counter\[13\]
*709 vga\.interval_counter\[14\]
*710 vga\.interval_counter\[15\]
*711 vga\.interval_counter\[16\]
*712 vga\.interval_counter\[17\]
*713 vga\.interval_counter\[18\]
*714 vga\.interval_counter\[19\]
*715 vga\.interval_counter\[1\]
*716 vga\.interval_counter\[20\]
*717 vga\.interval_counter\[21\]
*718 vga\.interval_counter\[22\]
*719 vga\.interval_counter\[23\]
*720 vga\.interval_counter\[24\]
*721 vga\.interval_counter\[2\]
*722 vga\.interval_counter\[3\]
*723 vga\.interval_counter\[4\]
*724 vga\.interval_counter\[5\]
*725 vga\.interval_counter\[6\]
*726 vga\.interval_counter\[7\]
*727 vga\.interval_counter\[8\]
*728 vga\.interval_counter\[9\]
*729 vga\.left_1d
*730 vga\.left_pressed
*731 vga\.right_1d
*732 vga\.right_pressed
*733 vga\.score\[0\]
*734 vga\.score_ten_enable
*735 vga\.score_unit_pixels\[1\]
*736 vga\.score_unit_pixels\[2\]
*737 vga\.speed_lsb_1d
*738 vga\.speed_msb_1d
*739 vga\.vs
*740 vga\.vs_out
*743 net1
*744 net2
*745 net3
*746 net4
*747 net5
*748 net6
*749 net7
*750 net8
*751 net9
*752 net10
*753 net11
*754 net12
*755 net13
*756 net14
*757 net15
*758 net16
*759 net17
*760 net18
*761 net19
*762 net20
*763 net21
*764 net22
*765 net23
*766 net24
*767 net25
*768 net26
*769 net27
*770 net28
*771 net29
*772 net30
*773 net31
*774 net32
*775 net33
*776 net34
*777 net35
*778 net36
*779 net37
*780 net38
*781 net39
*782 net40
*783 net41
*784 net42
*785 net43
*786 net44
*787 net45
*788 net46
*789 net47
*790 net48
*791 net49
*792 net50
*793 net51
*794 net52
*795 net53
*796 net54
*797 net55
*798 net56
*799 net57
*800 net59
*801 net60
*802 net61
*803 net62
*804 net63
*805 net64
*806 net65
*807 net66
*808 net67
*809 net68
*810 net69
*811 net70
*812 net71
*813 net72
*814 net73
*815 net74
*816 net75
*817 net76
*818 net77
*819 net78
*820 net79
*821 net80
*822 net81
*823 net82
*824 net83
*825 net84
*826 net85
*827 net86
*828 net87
*829 net88
*830 net89
*831 net90
*832 net91
*833 net92
*834 net93
*835 net94
*836 net95
*837 net96
*838 net97
*839 net98
*840 net99
*841 net100
*842 net101
*843 net102
*844 net103
*845 net104
*846 net105
*847 net106
*848 net107
*849 net108
*850 net109
*851 net110
*852 net111
*853 net112
*854 net113
*855 net114
*856 net115
*857 net116
*858 net117
*859 net118
*860 net119
*861 net120
*862 net121
*863 net122
*864 net123
*865 net124
*866 net125
*867 net126
*868 net127
*869 net128
*870 net129
*871 net130
*872 net131
*873 clknet_4_0_0_clk
*874 clknet_4_1_0_clk
*875 clknet_4_2_0_clk
*876 clknet_4_3_0_clk
*877 clknet_4_4_0_clk
*878 clknet_4_5_0_clk
*879 clknet_4_6_0_clk
*880 clknet_4_7_0_clk
*881 clknet_4_8_0_clk
*882 clknet_4_9_0_clk
*883 clknet_4_10_0_clk
*884 clknet_4_11_0_clk
*885 clknet_4_12_0_clk
*886 clknet_4_13_0_clk
*887 clknet_4_14_0_clk
*888 clknet_4_15_0_clk
*889 _0624_
*890 _0625_
*891 _0626_
*892 _0627_
*893 _0628_
*894 _0629_
*895 _0630_
*896 _0631_
*897 _0632_
*898 _0633_
*899 _0634_
*900 _0635_
*901 _0636_
*902 _0637_
*903 _0638_
*904 _0639_
*905 _0640_
*906 _0641_
*907 _0642_
*908 _0643_
*909 _0644_
*910 _0645_
*911 _0646_
*912 _0647_
*913 _0648_
*914 _0649_
*915 _0650_
*916 _0651_
*917 _0652_
*918 _0653_
*919 _0654_
*920 _0655_
*921 _0656_
*922 _0657_
*923 _0658_
*924 _0659_
*925 _0660_
*926 _0661_
*927 _0662_
*928 _0663_
*929 _0664_
*930 _0665_
*931 _0666_
*932 _0667_
*933 _0668_
*934 _0669_
*935 _0670_
*936 _0671_
*937 _0672_
*938 _0673_
*939 _0674_
*940 _0675_
*941 _0676_
*942 _0677_
*943 _0678_
*944 _0679_
*945 _0680_
*946 _0681_
*947 _0682_
*948 _0683_
*949 _0684_
*950 _0685_
*951 _0686_
*952 _0687_
*953 _0688_
*954 _0689_
*955 _0690_
*956 _0691_
*957 _0692_
*958 _0693_
*959 _0694_
*960 _0695_
*961 _0696_
*962 _0697_
*963 _0698_
*964 _0699_
*965 _0700_
*966 _0701_
*967 _0702_
*968 _0703_
*969 _0704_
*970 _0705_
*971 _0706_
*972 _0707_
*973 _0708_
*974 _0709_
*975 _0710_
*976 _0711_
*977 _0712_
*978 _0713_
*979 _0714_
*980 _0715_
*981 _0716_
*982 _0717_
*983 _0718_
*984 _0719_
*985 _0720_
*986 _0721_
*987 _0722_
*988 _0723_
*989 _0724_
*990 _0725_
*991 _0726_
*992 _0727_
*993 _0728_
*994 _0729_
*995 _0730_
*996 _0731_
*997 _0732_
*998 _0733_
*999 _0734_
*1000 _0735_
*1001 _0736_
*1002 _0737_
*1003 _0738_
*1004 _0739_
*1005 _0740_
*1006 _0741_
*1007 _0742_
*1008 _0743_
*1009 _0744_
*1010 _0745_
*1011 _0746_
*1012 _0747_
*1013 _0748_
*1014 _0749_
*1015 _0750_
*1016 _0751_
*1017 _0752_
*1018 _0753_
*1019 _0754_
*1020 _0755_
*1021 _0756_
*1022 _0757_
*1023 _0758_
*1024 _0759_
*1025 _0760_
*1026 _0761_
*1027 _0762_
*1028 _0763_
*1029 _0764_
*1030 _0765_
*1031 _0766_
*1032 _0767_
*1033 _0768_
*1034 _0769_
*1035 _0770_
*1036 _0771_
*1037 _0772_
*1038 _0773_
*1039 _0774_
*1040 _0775_
*1041 _0776_
*1042 _0777_
*1043 _0778_
*1044 _0779_
*1045 _0780_
*1046 _0781_
*1047 _0782_
*1048 _0783_
*1049 _0784_
*1050 _0785_
*1051 _0786_
*1052 _0787_
*1053 _0788_
*1054 _0789_
*1055 _0790_
*1056 _0791_
*1057 _0792_
*1058 _0793_
*1059 _0794_
*1060 _0795_
*1061 _0796_
*1062 _0797_
*1063 _0798_
*1064 _0799_
*1065 _0800_
*1066 _0801_
*1067 _0802_
*1068 _0803_
*1069 _0804_
*1070 _0805_
*1071 _0806_
*1072 _0807_
*1073 _0808_
*1074 _0809_
*1075 _0810_
*1076 _0811_
*1077 _0812_
*1078 _0813_
*1079 _0814_
*1080 _0815_
*1081 _0816_
*1082 _0817_
*1083 _0818_
*1084 _0819_
*1085 _0820_
*1086 _0821_
*1087 _0822_
*1088 _0823_
*1089 _0824_
*1090 _0825_
*1091 _0826_
*1092 _0827_
*1093 _0828_
*1094 _0829_
*1095 _0830_
*1096 _0831_
*1097 _0832_
*1098 _0833_
*1099 _0834_
*1100 _0835_
*1101 _0836_
*1102 _0837_
*1103 _0838_
*1104 _0839_
*1105 _0840_
*1106 _0841_
*1107 _0842_
*1108 _0843_
*1109 _0844_
*1110 _0845_
*1111 _0846_
*1112 _0847_
*1113 _0848_
*1114 _0849_
*1115 _0850_
*1116 _0851_
*1117 _0852_
*1118 _0853_
*1119 _0854_
*1120 _0855_
*1121 _0856_
*1122 _0857_
*1123 _0858_
*1124 _0859_
*1125 _0860_
*1126 _0861_
*1127 _0862_
*1128 _0863_
*1129 _0864_
*1130 _0865_
*1131 _0866_
*1132 _0867_
*1133 _0868_
*1134 _0869_
*1135 _0870_
*1136 _0871_
*1137 _0872_
*1138 _0873_
*1139 _0874_
*1140 _0875_
*1141 _0876_
*1142 _0877_
*1143 _0878_
*1144 _0879_
*1145 _0880_
*1146 _0881_
*1147 _0882_
*1148 _0883_
*1149 _0884_
*1150 _0885_
*1151 _0886_
*1152 _0887_
*1153 _0888_
*1154 _0889_
*1155 _0890_
*1156 _0891_
*1157 _0892_
*1158 _0893_
*1159 _0894_
*1160 _0895_
*1161 _0896_
*1162 _0897_
*1163 _0898_
*1164 _0899_
*1165 _0900_
*1166 _0901_
*1167 _0902_
*1168 _0903_
*1169 _0904_
*1170 _0905_
*1171 _0906_
*1172 _0907_
*1173 _0908_
*1174 _0909_
*1175 _0910_
*1176 _0911_
*1177 _0912_
*1178 _0913_
*1179 _0914_
*1180 _0915_
*1181 _0916_
*1182 _0917_
*1183 _0918_
*1184 _0919_
*1185 _0920_
*1186 _0921_
*1187 _0922_
*1188 _0923_
*1189 _0924_
*1190 _0925_
*1191 _0926_
*1192 _0927_
*1193 _0928_
*1194 _0929_
*1195 _0930_
*1196 _0931_
*1197 _0932_
*1198 _0933_
*1199 _0934_
*1200 _0935_
*1201 _0936_
*1202 _0937_
*1203 _0938_
*1204 _0939_
*1205 _0940_
*1206 _0941_
*1207 _0942_
*1208 _0943_
*1209 _0944_
*1210 _0945_
*1211 _0946_
*1212 _0947_
*1213 _0948_
*1214 _0949_
*1215 _0950_
*1216 _0951_
*1217 _0952_
*1218 _0953_
*1219 _0954_
*1220 _0955_
*1221 _0956_
*1222 _0957_
*1223 _0958_
*1224 _0959_
*1225 _0960_
*1226 _0961_
*1227 _0962_
*1228 _0963_
*1229 _0964_
*1230 _0965_
*1231 _0966_
*1232 _0967_
*1233 _0968_
*1234 _0969_
*1235 _0970_
*1236 _0971_
*1237 _0972_
*1238 _0973_
*1239 _0974_
*1240 _0975_
*1241 _0976_
*1242 _0977_
*1243 _0978_
*1244 _0979_
*1245 _0980_
*1246 _0981_
*1247 _0982_
*1248 _0983_
*1249 _0984_
*1250 _0985_
*1251 _0986_
*1252 _0987_
*1253 _0988_
*1254 _0989_
*1255 _0990_
*1256 _0991_
*1257 _0992_
*1258 _0993_
*1259 _0994_
*1260 _0995_
*1261 _0996_
*1262 _0997_
*1263 _0998_
*1264 _0999_
*1265 _1000_
*1266 _1001_
*1267 _1002_
*1268 _1003_
*1269 _1004_
*1270 _1005_
*1271 _1006_
*1272 _1007_
*1273 _1008_
*1274 _1009_
*1275 _1010_
*1276 _1011_
*1277 _1012_
*1278 _1013_
*1279 _1014_
*1280 _1015_
*1281 _1016_
*1282 _1017_
*1283 _1018_
*1284 _1019_
*1285 _1020_
*1286 _1021_
*1287 _1022_
*1288 _1023_
*1289 _1024_
*1290 _1025_
*1291 _1026_
*1292 _1027_
*1293 _1028_
*1294 _1029_
*1295 _1030_
*1296 _1031_
*1297 _1032_
*1298 _1033_
*1299 _1034_
*1300 _1035_
*1301 _1036_
*1302 _1037_
*1303 _1038_
*1304 _1039_
*1305 _1040_
*1306 _1041_
*1307 _1042_
*1308 _1043_
*1309 _1044_
*1310 _1045_
*1311 _1046_
*1312 _1047_
*1313 _1048_
*1314 _1049_
*1315 _1050_
*1316 _1051_
*1317 _1052_
*1318 _1053_
*1319 _1054_
*1320 _1055_
*1321 _1056_
*1322 _1057_
*1323 _1058_
*1324 _1059_
*1325 _1060_
*1326 _1061_
*1327 _1062_
*1328 _1063_
*1329 _1064_
*1330 _1065_
*1331 _1066_
*1332 _1067_
*1333 _1068_
*1334 _1069_
*1335 _1070_
*1336 _1071_
*1337 _1072_
*1338 _1073_
*1339 _1074_
*1340 _1075_
*1341 _1076_
*1342 _1077_
*1343 _1078_
*1344 _1079_
*1345 _1080_
*1346 _1081_
*1347 _1082_
*1348 _1083_
*1349 _1084_
*1350 _1085_
*1351 _1086_
*1352 _1087_
*1353 _1088_
*1354 _1089_
*1355 _1090_
*1356 _1091_
*1357 _1092_
*1358 _1093_
*1359 _1094_
*1360 _1095_
*1361 _1096_
*1362 _1097_
*1363 _1098_
*1364 _1099_
*1365 _1100_
*1366 _1101_
*1367 _1102_
*1368 _1103_
*1369 _1104_
*1370 _1105_
*1371 _1106_
*1372 _1107_
*1373 _1108_
*1374 _1109_
*1375 _1110_
*1376 _1111_
*1377 _1112_
*1378 _1113_
*1379 _1114_
*1380 _1115_
*1381 _1116_
*1382 _1117_
*1383 _1118_
*1384 _1119_
*1385 _1120_
*1386 _1121_
*1387 _1122_
*1388 _1123_
*1389 _1124_
*1390 _1125_
*1391 _1126_
*1392 _1127_
*1393 _1128_
*1394 _1129_
*1395 _1130_
*1396 _1131_
*1397 _1132_
*1398 _1133_
*1399 _1134_
*1400 _1135_
*1401 _1136_
*1402 _1137_
*1403 _1138_
*1404 _1139_
*1405 _1140_
*1406 _1141_
*1407 _1142_
*1408 _1143_
*1409 _1144_
*1410 _1145_
*1411 _1146_
*1412 _1147_
*1413 _1148_
*1414 _1149_
*1415 _1150_
*1416 _1151_
*1417 _1152_
*1418 _1153_
*1419 _1154_
*1420 _1155_
*1421 _1156_
*1422 _1157_
*1423 _1158_
*1424 _1159_
*1425 _1160_
*1426 _1161_
*1427 _1162_
*1428 _1163_
*1429 _1164_
*1430 _1165_
*1431 _1166_
*1432 _1167_
*1433 _1168_
*1434 _1169_
*1435 _1170_
*1436 _1171_
*1437 _1172_
*1438 _1173_
*1439 _1174_
*1440 _1175_
*1441 _1176_
*1442 _1177_
*1443 _1178_
*1444 clkbuf_0_clk
*1445 _1176__58
*1446 _1181_
*1447 _1182_
*1448 _1183_
*1449 _1184_
*1450 _1185_
*1451 _1186_
*1452 _1187_
*1453 _1188_
*1454 _1189_
*1455 _1190_
*1456 _1191_
*1457 _1192_
*1458 _1193_
*1459 _1194_
*1460 _1195_
*1461 _1196_
*1462 _1197_
*1463 _1198_
*1464 _1199_
*1465 vga\.blank_h\$_SDFFE_PN1P_
*1466 vga\.blank_v\$_SDFFE_PN1P_
*1467 vga\.blu\$_SDFF_PN0_
*1468 vga\.car_pos_h\[0\]\$_SDFFE_PN1P_
*1469 vga\.car_pos_h\[1\]\$_SDFFE_PN1P_
*1470 vga\.car_pos_h\[2\]\$_SDFFE_PN1P_
*1471 vga\.car_pos_h\[3\]\$_SDFFE_PN1P_
*1472 vga\.car_pos_h\[4\]\$_SDFFE_PN1P_
*1473 vga\.car_pos_h\[5\]\$_SDFFE_PN1P_
*1474 vga\.car_pos_h\[6\]\$_SDFFE_PN0P_
*1475 vga\.car_pos_h\[7\]\$_SDFFE_PN0P_
*1476 vga\.car_pos_h\[8\]\$_SDFFE_PN1P_
*1477 vga\.car_pos_h\[9\]\$_SDFFE_PN0P_
*1478 vga\.count_h\[0\]\$_SDFF_PN1_
*1479 vga\.count_h\[1\]\$_SDFF_PN1_
*1480 vga\.count_h\[2\]\$_SDFF_PN1_
*1481 vga\.count_h\[3\]\$_SDFF_PN1_
*1482 vga\.count_h\[4\]\$_SDFF_PN1_
*1483 vga\.count_h\[5\]\$_SDFF_PN1_
*1484 vga\.count_h\[6\]\$_SDFF_PN1_
*1485 vga\.count_h\[7\]\$_SDFF_PN1_
*1486 vga\.count_h\[8\]\$_SDFF_PN1_
*1487 vga\.count_h\[9\]\$_SDFF_PN1_
*1488 vga\.count_v\[0\]\$_SDFFE_PN1N_
*1489 vga\.count_v\[1\]\$_SDFFE_PN1N_
*1490 vga\.count_v\[2\]\$_SDFFE_PN1N_
*1491 vga\.count_v\[3\]\$_SDFFE_PN1N_
*1492 vga\.count_v\[4\]\$_SDFFE_PN1N_
*1493 vga\.count_v\[5\]\$_SDFFE_PN1N_
*1494 vga\.count_v\[6\]\$_SDFFE_PN1N_
*1495 vga\.count_v\[7\]\$_SDFFE_PN1N_
*1496 vga\.count_v\[8\]\$_SDFFE_PN1N_
*1497 vga\.count_v\[9\]\$_SDFFE_PN0N_
*1498 vga\.hs_out\$_SDFF_PP0_
*1499 vga\.interval_counter\[0\]\$_SDFF_PP0_
*1500 vga\.interval_counter\[10\]\$_SDFF_PP0_
*1501 vga\.interval_counter\[11\]\$_SDFF_PP0_
*1502 vga\.interval_counter\[12\]\$_SDFF_PP0_
*1503 vga\.interval_counter\[13\]\$_SDFF_PP0_
*1504 vga\.interval_counter\[14\]\$_SDFF_PP0_
*1505 vga\.interval_counter\[15\]\$_SDFF_PP0_
*1506 vga\.interval_counter\[16\]\$_SDFF_PP0_
*1507 vga\.interval_counter\[17\]\$_SDFF_PP0_
*1508 vga\.interval_counter\[18\]\$_SDFF_PP0_
*1509 vga\.interval_counter\[19\]\$_SDFF_PP0_
*1510 vga\.interval_counter\[1\]\$_SDFF_PP0_
*1511 vga\.interval_counter\[20\]\$_SDFF_PP0_
*1512 vga\.interval_counter\[21\]\$_SDFF_PP0_
*1513 vga\.interval_counter\[22\]\$_SDFF_PP0_
*1514 vga\.interval_counter\[23\]\$_SDFF_PP0_
*1515 vga\.interval_counter\[24\]\$_SDFF_PP0_
*1516 vga\.interval_counter\[2\]\$_SDFF_PP0_
*1517 vga\.interval_counter\[3\]\$_SDFF_PP0_
*1518 vga\.interval_counter\[4\]\$_SDFF_PP0_
*1519 vga\.interval_counter\[5\]\$_SDFF_PP0_
*1520 vga\.interval_counter\[6\]\$_SDFF_PP0_
*1521 vga\.interval_counter\[7\]\$_SDFF_PP0_
*1522 vga\.interval_counter\[8\]\$_SDFF_PP0_
*1523 vga\.interval_counter\[9\]\$_SDFF_PP0_
*1524 vga\.left_1d\$_DFFE_PN_
*1525 vga\.left_pressed\$_SDFF_PP0_
*1526 vga\.red\$_SDFF_PP0_
*1527 vga\.right_1d\$_DFFE_PN_
*1528 vga\.right_pressed\$_SDFF_PP0_
*1529 vga\.score\[1\]\$_SDFFE_PN1P_
*1530 vga\.score_ten_enable\$_SDFF_PN0_
*1531 vga\.score_unit_pixels\[1\]\$_SDFFCE_PP1P_
*1532 vga\.score_unit_pixels\[2\]\$_SDFFCE_PP1P_
*1533 vga\.speed_lsb_1d\$_SDFF_PN0_
*1534 vga\.speed_msb_1d\$_SDFF_PN0_
*1535 vga\.vs_out\$_SDFFE_PN0P_
*1536 input1
*1537 input2
*1538 input3
*1539 input4
*1540 input5
*1541 output6
*1542 output7
*1543 output8
*1544 output9
*1545 output10
*1546 output11
*1547 output12
*1548 output13
*1549 output14
*1550 output15
*1551 output16
*1552 output17
*1553 output18
*1554 output19
*1555 output20
*1556 output21
*1557 output22
*1558 output23
*1559 output24
*1560 output25
*1561 output26
*1562 output27
*1563 fanout28
*1564 fanout29
*1565 fanout30
*1566 fanout31
*1567 fanout32
*1568 fanout33
*1569 fanout34
*1570 fanout35
*1571 fanout36
*1572 fanout37
*1573 fanout38
*1574 fanout39
*1575 fanout40
*1576 fanout41
*1577 fanout42
*1578 fanout43
*1579 fanout44
*1580 fanout45
*1581 fanout46
*1582 fanout47
*1583 fanout48
*1584 fanout49
*1585 fanout50
*1586 fanout51
*1587 fanout52
*1588 fanout53
*1589 fanout54
*1590 fanout55
*1591 _1194__56
*1592 _1195__57
*1593 _1177__59
*1594 _1178__60
*1595 vga\.blank_h\$_SDFFE_PN1P__61
*1596 vga\.blank_v\$_SDFFE_PN1P__62
*1597 vga\.blu\$_SDFF_PN0__63
*1598 vga\.car_pos_h\[0\]\$_SDFFE_PN1P__64
*1599 vga\.car_pos_h\[1\]\$_SDFFE_PN1P__65
*1600 vga\.car_pos_h\[2\]\$_SDFFE_PN1P__66
*1601 vga\.car_pos_h\[3\]\$_SDFFE_PN1P__67
*1602 vga\.car_pos_h\[4\]\$_SDFFE_PN1P__68
*1603 vga\.car_pos_h\[5\]\$_SDFFE_PN1P__69
*1604 vga\.car_pos_h\[6\]\$_SDFFE_PN0P__70
*1605 vga\.car_pos_h\[7\]\$_SDFFE_PN0P__71
*1606 vga\.car_pos_h\[8\]\$_SDFFE_PN1P__72
*1607 vga\.car_pos_h\[9\]\$_SDFFE_PN0P__73
*1608 vga\.count_h\[0\]\$_SDFF_PN1__74
*1609 vga\.count_h\[1\]\$_SDFF_PN1__75
*1610 vga\.count_h\[2\]\$_SDFF_PN1__76
*1611 vga\.count_h\[3\]\$_SDFF_PN1__77
*1612 vga\.count_h\[4\]\$_SDFF_PN1__78
*1613 vga\.count_h\[5\]\$_SDFF_PN1__79
*1614 vga\.count_h\[6\]\$_SDFF_PN1__80
*1615 vga\.count_h\[7\]\$_SDFF_PN1__81
*1616 vga\.count_h\[8\]\$_SDFF_PN1__82
*1617 vga\.count_h\[9\]\$_SDFF_PN1__83
*1618 vga\.count_v\[0\]\$_SDFFE_PN1N__84
*1619 vga\.count_v\[1\]\$_SDFFE_PN1N__85
*1620 vga\.count_v\[2\]\$_SDFFE_PN1N__86
*1621 vga\.count_v\[3\]\$_SDFFE_PN1N__87
*1622 vga\.count_v\[4\]\$_SDFFE_PN1N__88
*1623 vga\.count_v\[5\]\$_SDFFE_PN1N__89
*1624 vga\.count_v\[6\]\$_SDFFE_PN1N__90
*1625 vga\.count_v\[7\]\$_SDFFE_PN1N__91
*1626 vga\.count_v\[8\]\$_SDFFE_PN1N__92
*1627 vga\.count_v\[9\]\$_SDFFE_PN0N__93
*1628 vga\.hs_out\$_SDFF_PP0__94
*1629 vga\.interval_counter\[0\]\$_SDFF_PP0__95
*1630 vga\.interval_counter\[10\]\$_SDFF_PP0__96
*1631 vga\.interval_counter\[11\]\$_SDFF_PP0__97
*1632 vga\.interval_counter\[12\]\$_SDFF_PP0__98
*1633 vga\.interval_counter\[13\]\$_SDFF_PP0__99
*1634 vga\.interval_counter\[14\]\$_SDFF_PP0__100
*1635 vga\.interval_counter\[15\]\$_SDFF_PP0__101
*1636 vga\.interval_counter\[16\]\$_SDFF_PP0__102
*1637 vga\.interval_counter\[17\]\$_SDFF_PP0__103
*1638 vga\.interval_counter\[18\]\$_SDFF_PP0__104
*1639 vga\.interval_counter\[19\]\$_SDFF_PP0__105
*1640 vga\.interval_counter\[1\]\$_SDFF_PP0__106
*1641 vga\.interval_counter\[20\]\$_SDFF_PP0__107
*1642 vga\.interval_counter\[21\]\$_SDFF_PP0__108
*1643 vga\.interval_counter\[22\]\$_SDFF_PP0__109
*1644 vga\.interval_counter\[23\]\$_SDFF_PP0__110
*1645 vga\.interval_counter\[24\]\$_SDFF_PP0__111
*1646 vga\.interval_counter\[2\]\$_SDFF_PP0__112
*1647 vga\.interval_counter\[3\]\$_SDFF_PP0__113
*1648 vga\.interval_counter\[4\]\$_SDFF_PP0__114
*1649 vga\.interval_counter\[5\]\$_SDFF_PP0__115
*1650 vga\.interval_counter\[6\]\$_SDFF_PP0__116
*1651 vga\.interval_counter\[7\]\$_SDFF_PP0__117
*1652 vga\.interval_counter\[8\]\$_SDFF_PP0__118
*1653 vga\.interval_counter\[9\]\$_SDFF_PP0__119
*1654 vga\.left_1d\$_DFFE_PN__120
*1655 vga\.left_pressed\$_SDFF_PP0__121
*1656 vga\.red\$_SDFF_PP0__122
*1657 vga\.right_1d\$_DFFE_PN__123
*1658 vga\.right_pressed\$_SDFF_PP0__124
*1659 vga\.score\[1\]\$_SDFFE_PN1P__125
*1660 vga\.score_ten_enable\$_SDFF_PN0__126
*1661 vga\.score_unit_pixels\[1\]\$_SDFFCE_PP1P__127
*1662 vga\.score_unit_pixels\[2\]\$_SDFFCE_PP1P__128
*1663 vga\.speed_lsb_1d\$_SDFF_PN0__129
*1664 vga\.speed_msb_1d\$_SDFF_PN0__130
*1665 vga\.vs_out\$_SDFFE_PN0P__131
*1666 clkbuf_4_0_0_clk
*1667 clkbuf_4_1_0_clk
*1668 clkbuf_4_2_0_clk
*1669 clkbuf_4_3_0_clk
*1670 clkbuf_4_4_0_clk
*1671 clkbuf_4_5_0_clk
*1672 clkbuf_4_6_0_clk
*1673 clkbuf_4_7_0_clk
*1674 clkbuf_4_8_0_clk
*1675 clkbuf_4_9_0_clk
*1676 clkbuf_4_10_0_clk
*1677 clkbuf_4_11_0_clk
*1678 clkbuf_4_12_0_clk
*1679 clkbuf_4_13_0_clk
*1680 clkbuf_4_14_0_clk
*1681 clkbuf_4_15_0_clk
*1682 clkload0
*1683 clkload1
*1684 clkload2
*1685 clkload3
*1686 clkload4
*1687 clkload5
*1688 FILLER_0_0
*1689 FILLER_0_7
*1690 FILLER_0_14
*1691 FILLER_0_21
*1692 FILLER_0_28
*1693 FILLER_0_35
*1694 FILLER_0_42
*1695 FILLER_0_49
*1696 FILLER_0_56
*1697 FILLER_0_63
*1698 FILLER_0_70
*1699 FILLER_0_77
*1700 FILLER_0_84
*1701 FILLER_0_91
*1702 FILLER_0_98
*1703 FILLER_0_105
*1704 FILLER_0_112
*1705 FILLER_0_119
*1706 FILLER_0_126
*1707 FILLER_0_133
*1708 FILLER_0_140
*1709 FILLER_0_147
*1710 FILLER_0_154
*1711 FILLER_0_161
*1712 FILLER_0_168
*1713 FILLER_0_175
*1714 FILLER_0_182
*1715 FILLER_0_189
*1716 FILLER_0_196
*1717 FILLER_0_203
*1718 FILLER_0_210
*1719 FILLER_0_217
*1720 FILLER_0_224
*1721 FILLER_0_231
*1722 FILLER_0_238
*1723 FILLER_0_245
*1724 FILLER_0_252
*1725 FILLER_0_259
*1726 FILLER_0_266
*1727 FILLER_0_273
*1728 FILLER_0_280
*1729 FILLER_0_287
*1730 FILLER_0_294
*1731 FILLER_0_301
*1732 FILLER_0_308
*1733 FILLER_0_315
*1734 FILLER_0_322
*1735 FILLER_0_329
*1736 FILLER_0_336
*1737 FILLER_0_343
*1738 FILLER_0_350
*1739 FILLER_0_357
*1740 FILLER_0_364
*1741 FILLER_0_371
*1742 FILLER_0_378
*1743 FILLER_0_385
*1744 FILLER_0_392
*1745 FILLER_0_399
*1746 FILLER_0_406
*1747 FILLER_0_413
*1748 FILLER_0_420
*1749 FILLER_0_427
*1750 FILLER_0_429
*1751 FILLER_1_0
*1752 FILLER_1_7
*1753 FILLER_1_14
*1754 FILLER_1_21
*1755 FILLER_1_28
*1756 FILLER_1_35
*1757 FILLER_1_42
*1758 FILLER_1_49
*1759 FILLER_1_56
*1760 FILLER_1_63
*1761 FILLER_1_70
*1762 FILLER_1_77
*1763 FILLER_1_84
*1764 FILLER_1_91
*1765 FILLER_1_98
*1766 FILLER_1_105
*1767 FILLER_1_112
*1768 FILLER_1_119
*1769 FILLER_1_126
*1770 FILLER_1_133
*1771 FILLER_1_140
*1772 FILLER_1_147
*1773 FILLER_1_154
*1774 FILLER_1_161
*1775 FILLER_1_168
*1776 FILLER_1_175
*1777 FILLER_1_182
*1778 FILLER_1_189
*1779 FILLER_1_196
*1780 FILLER_1_203
*1781 FILLER_1_210
*1782 FILLER_1_217
*1783 FILLER_1_224
*1784 FILLER_1_231
*1785 FILLER_1_238
*1786 FILLER_1_245
*1787 FILLER_1_252
*1788 FILLER_1_259
*1789 FILLER_1_266
*1790 FILLER_1_273
*1791 FILLER_1_280
*1792 FILLER_1_287
*1793 FILLER_1_294
*1794 FILLER_1_301
*1795 FILLER_1_308
*1796 FILLER_1_315
*1797 FILLER_1_322
*1798 FILLER_1_329
*1799 FILLER_1_336
*1800 FILLER_1_343
*1801 FILLER_1_350
*1802 FILLER_1_357
*1803 FILLER_1_364
*1804 FILLER_1_371
*1805 FILLER_1_378
*1806 FILLER_1_385
*1807 FILLER_1_392
*1808 FILLER_1_399
*1809 FILLER_1_406
*1810 FILLER_1_413
*1811 FILLER_1_420
*1812 FILLER_1_427
*1813 FILLER_1_429
*1814 FILLER_2_0
*1815 FILLER_2_7
*1816 FILLER_2_14
*1817 FILLER_2_21
*1818 FILLER_2_28
*1819 FILLER_2_35
*1820 FILLER_2_42
*1821 FILLER_2_49
*1822 FILLER_2_56
*1823 FILLER_2_63
*1824 FILLER_2_70
*1825 FILLER_2_77
*1826 FILLER_2_84
*1827 FILLER_2_91
*1828 FILLER_2_98
*1829 FILLER_2_105
*1830 FILLER_2_112
*1831 FILLER_2_119
*1832 FILLER_2_126
*1833 FILLER_2_133
*1834 FILLER_2_140
*1835 FILLER_2_147
*1836 FILLER_2_154
*1837 FILLER_2_161
*1838 FILLER_2_168
*1839 FILLER_2_175
*1840 FILLER_2_182
*1841 FILLER_2_189
*1842 FILLER_2_196
*1843 FILLER_2_203
*1844 FILLER_2_210
*1845 FILLER_2_217
*1846 FILLER_2_224
*1847 FILLER_2_231
*1848 FILLER_2_238
*1849 FILLER_2_245
*1850 FILLER_2_252
*1851 FILLER_2_259
*1852 FILLER_2_266
*1853 FILLER_2_273
*1854 FILLER_2_280
*1855 FILLER_2_287
*1856 FILLER_2_294
*1857 FILLER_2_301
*1858 FILLER_2_308
*1859 FILLER_2_315
*1860 FILLER_2_322
*1861 FILLER_2_329
*1862 FILLER_2_336
*1863 FILLER_2_343